powerfulcases/cases/matpower/case145/case145.raw
0, 100, 33, 0, 0, 60  / 28-Jan-2026 21:50:42 - MATPOWER 8.1


     1, 'BRU   1A 500',       500, 1,    2,    2, 1,       1.081,       -4.32, 1.06, 0.94, 1.06, 0.94
     2, 'BRU   5A 500',       500, 1,    2,    2, 1,      1.0809,       -4.39, 1.06, 0.94, 1.06, 0.94
     3, 'BRU  12A25.7',      25.7, 1,    2,    2, 1,      1.1015,       -4.02, 1.06, 0.94, 1.06, 0.94
     4, 'BRU  13B25.7',      25.7, 1,    2,    2, 1,      1.1015,       -4.02, 1.06, 0.94, 1.06, 0.94
     5, 'BRU  14C25.7',      25.7, 1,    2,    2, 1,      1.1018,       -4.02, 1.06, 0.94, 1.06, 0.94
     6, 'MIL  15A 500',       500, 1,    2,    2, 1,      1.0433,       -7.84, 1.06, 0.94, 1.06, 0.94
     7, 'NAN  17A 500',       500, 1,    2,    2, 1,      1.0763,        3.21, 1.06, 0.94, 1.06, 0.94
     8, 'NAN  19A 100',       100, 1,    2,    2, 1,      1.1137,        1.15, 1.06, 0.94, 1.06, 0.94
     9, 'TRA  20A 500',       500, 1,    2,    2, 1,      1.0396,       -8.05, 1.06, 0.94, 1.06, 0.94
    10, 'TRA  21B 500',       500, 1,    2,    2, 1,      1.0396,       -8.05, 1.06, 0.94, 1.06, 0.94
    11, 'TRA  22A 100',       100, 1,    2,    2, 1,      1.0937,      -10.66, 1.06, 0.94, 1.06, 0.94
    12, 'CLA  23A 500',       500, 1,    2,    2, 1,      1.0389,       -8.77, 1.06, 0.94, 1.06, 0.94
    13, 'CLA  25A 100',       100, 1,    2,    2, 1,      1.0982,      -11.43, 1.06, 0.94, 1.06, 0.94
    14, 'ESS  26A 500',       500, 1,    2,    2, 1,      1.0385,       -9.18, 1.06, 0.94, 1.06, 0.94
    15, 'ESS  29A 100',       100, 1,    2,    2, 1,      1.0683,       -9.81, 1.06, 0.94, 1.06, 0.94
    16, 'ESS  30B 100',       100, 1,    2,    2, 1,      1.0686,       -9.86, 1.06, 0.94, 1.06, 0.94
    17, 'HAN  31A 500',       500, 1,    2,    2, 1,      1.0012,       -9.44, 1.06, 0.94, 1.06, 0.94
    18, 'HAN  33A 100',       100, 1,    2,    2, 1,      1.0746,      -10.88, 1.06, 0.94, 1.06, 0.94
    19, 'HAN  34B 100',       100, 1,    2,    2, 1,      1.0708,      -10.96, 1.06, 0.94, 1.06, 0.94
    20, 'HAN  35C 100',       100, 1,    2,    2, 1,      1.1131,      -10.96, 1.06, 0.94, 1.06, 0.94
    21, 'HAN  36D 100',       100, 1,    2,    2, 1,      1.1086,      -11.24, 1.06, 0.94, 1.06, 0.94
    22, 'POR  37A 500',       500, 1,    2,    2, 1,      1.0311,       -3.88, 1.06, 0.94, 1.06, 0.94
    23, 'POR  38A 100',       100, 1,    2,    2, 1,      1.0979,       -5.51, 1.06, 0.94, 1.06, 0.94
    24, 'PIN  39A 500',       500, 1,    2,    2, 1,      1.0272,         2.3, 1.06, 0.94, 1.06, 0.94
    25, 'CHE  41A 500',       500, 1,    2,    2, 1,       1.038,       -9.87, 1.06, 0.94, 1.06, 0.94
    26, 'CHE  42A 100',       100, 1,    2,    2, 1,      1.0894,      -11.37, 1.06, 0.94, 1.06, 0.94
    27, 'LEN  43A 500',       500, 1,    2,    2, 1,      1.0389,      -13.07, 1.06, 0.94, 1.06, 0.94
    28, 'LEN  46A 100',       100, 1,    2,    2, 1,      1.0762,      -15.28, 1.06, 0.94, 1.06, 0.94
    29, 'LEN  47B 100',       100, 1,    2,    2, 1,      1.0746,      -15.44, 1.06, 0.94, 1.06, 0.94
    30, 'POR  552 100',       100, 1,    2,    2, 1,      1.0731,       -5.35, 1.06, 0.94, 1.06, 0.94
    31, 'CHE  56B 100',       100, 1,    2,    2, 1,      1.0905,      -11.81, 1.06, 0.94, 1.06, 0.94
    32, 'TRA  57A 100',       100, 1,    2,    2, 1,      1.0937,      -10.66, 1.06, 0.94, 1.06, 0.94
    33, 'BRU 101A 220',       220, 1,    2,    2, 1,      1.1392,       -4.06, 1.06, 0.94, 1.06, 0.94
    34, 'BRU 110A 220',       220, 1,    2,    2, 1,      1.1387,          -4, 1.06, 0.94, 1.06, 0.94
    35, 'BRU 111B 220',       220, 1,    2,    2, 1,       1.139,       -4.08, 1.06, 0.94, 1.06, 0.94
    36, 'DOU 112A 220',       220, 1,    2,    2, 1,      1.1385,       -3.82, 1.06, 0.94, 1.06, 0.94
    37, 'OWE 113A 220',       220, 1,    2,    2, 1,      1.1235,       -6.23, 1.06, 0.94, 1.06, 0.94
    38, 'OWE 114B 220',       220, 1,    2,    2, 1,      1.1306,       -5.29, 1.06, 0.94, 1.06, 0.94
    39, 'WIN 117A 220',       220, 1,    2,    2, 1,       1.127,       -7.92, 1.06, 0.94, 1.06, 0.94
    40, 'WIN 118B 220',       220, 1,    2,    2, 1,      1.1269,       -7.92, 1.06, 0.94, 1.06, 0.94
    41, 'SEA 119A 100',       100, 1,    2,    2, 1,      1.1188,      -10.43, 1.06, 0.94, 1.06, 0.94
    42, 'SEA 120B 100',       100, 1,    2,    2, 1,      1.1188,      -10.45, 1.06, 0.94, 1.06, 0.94
    43, 'SEA 121A 220',       220, 1,    2,    2, 1,      1.1189,       -10.4, 1.06, 0.94, 1.06, 0.94
    44, 'SEA 122B 220',       220, 1,    2,    2, 1,      1.1189,      -10.42, 1.06, 0.94, 1.06, 0.94
    45, 'STR 125A 220',       220, 1,    2,    2, 1,      1.1173,      -11.41, 1.06, 0.94, 1.06, 0.94
    46, 'STR 126B 220',       220, 1,    2,    2, 1,      1.1173,      -11.41, 1.06, 0.94, 1.06, 0.94
    47, 'HAN 127A 100',       100, 1,    2,    2, 1,      1.1275,       -6.73, 1.06, 0.94, 1.06, 0.94
    48, 'HAN 128B 100',       100, 1,    2,    2, 1,      1.1278,       -6.71, 1.06, 0.94, 1.06, 0.94
    49, 'HAN 129A 220',       220, 1,    2,    2, 1,      1.1279,        -6.7, 1.06, 0.94, 1.06, 0.94
    50, 'HAN 130B 220',       220, 1,    2,    2, 1,      1.1276,       -6.72, 1.06, 0.94, 1.06, 0.94
    51, 'ORA 131A 220',       220, 1,    2,    2, 1,      1.1124,      -10.16, 1.06, 0.94, 1.06, 0.94
    52, 'FER 134A 100',       100, 1,    2,    2, 1,      1.1118,      -11.13, 1.06, 0.94, 1.06, 0.94
    53, 'FER 135B 100',       100, 1,    2,    2, 1,      1.1118,      -11.13, 1.06, 0.94, 1.06, 0.94
    54, 'SCH 138A 100',       100, 1,    2,    2, 1,      1.1131,      -11.79, 1.06, 0.94, 1.06, 0.94
    55, 'SCH 139B 100',       100, 1,    2,    2, 1,      1.1131,      -11.79, 1.06, 0.94, 1.06, 0.94
    56, 'ALL 142A 100',       100, 1,    2,    2, 1,      1.1072,       -9.94, 1.06, 0.94, 1.06, 0.94
    57, 'ALL 143B 100',       100, 1,    2,    2, 1,      1.1072,       -9.94, 1.06, 0.94, 1.06, 0.94
    58, 'ESS 144A 100',       100, 1,    2,    2, 1,      1.1067,       -9.76, 1.06, 0.94, 1.06, 0.94
    59, 'HAN 163A 100',       100, 1,    2,    2, 1,      1.1165,      -10.84, 1.06, 0.94, 1.06, 0.94
    60, 'LAK 187A 100',       100, 2,    2,    2, 1,       1.137,       -6.37, 1.06, 0.94, 1.06, 0.94
    61, 'DET 196A 220',       220, 1,    2,    2, 1,      1.1144,      -11.89, 1.06, 0.94, 1.06, 0.94
    62, 'DET 198A 100',       100, 1,    2,    2, 1,      1.0566,      -14.47, 1.06, 0.94, 1.06, 0.94
    63, 'BUC 205A 100',       100, 1,    2,    2, 1,      1.1109,      -13.98, 1.06, 0.94, 1.06, 0.94
    64, 'GAL 259A 100',       100, 1,    2,    2, 1,       1.098,       -9.29, 1.06, 0.94, 1.06, 0.94
    65, 'GAL 260B 100',       100, 1,    2,    2, 1,       1.098,       -9.29, 1.06, 0.94, 1.06, 0.94
    66, 'NAN 269A 100',       100, 1,    2,    2, 1,      1.1129,        1.32, 1.06, 0.94, 1.06, 0.94
    67, 'BEC 287A 100',       100, 2,    2,    2, 1,        1.09,       -5.66, 1.06, 0.94, 1.06, 0.94
    68, 'BUR 317A 100',       100, 1,    2,    2, 1,      1.2086,      -30.99, 1.06, 0.94, 1.06, 0.94
    69, 'TRA 318A 100',       100, 1,    2,    2, 1,      1.0968,      -10.42, 1.06, 0.94, 1.06, 0.94
    70, 'MAN 344A 100',       100, 1,    2,    2, 1,      0.9998,      -14.17, 1.06, 0.94, 1.06, 0.94
    71, 'MAN 347A 100',       100, 1,    2,    2, 1,      1.0275,      -14.26, 1.06, 0.94, 1.06, 0.94
    72, 'CLA 364A 100',       100, 1,    2,    2, 1,      1.1007,      -11.19, 1.06, 0.94, 1.06, 0.94
    73, 'CHE 424A 100',       100, 1,    2,    2, 1,      1.0975,      -11.06, 1.06, 0.94, 1.06, 0.94
    74, 'CHE 425B 100',       100, 1,    2,    2, 1,      1.0973,      -11.46, 1.06, 0.94, 1.06, 0.94
    75, 'LEN 520A 100',       100, 1,    2,    2, 1,      1.1179,      -15.19, 1.06, 0.94, 1.06, 0.94
    76, 'PIN 539A 100',       100, 1,    2,    2, 1,      1.0209,        5.54, 1.06, 0.94, 1.06, 0.94
    77, 'DUM 5441 100',       100, 1,    2,    2, 1,       0.988,        6.72, 1.06, 0.94, 1.06, 0.94
    78, 'POR 545A 100',       100, 1,    2,    2, 1,       1.074,       -5.19, 1.06, 0.94, 1.06, 0.94
    79, 'MCK1032  100',       100, 2,    2,    2, 1,       1.052,       -9.51, 1.06, 0.94, 1.06, 0.94
    80, 'HIG1036S 100',       100, 2,    2,    2, 1,       1.069,       -8.21, 1.06, 0.94, 1.06, 0.94
    81, 'SCA11548 100',       100, 1,    2,    2, 1,      1.1304,      -25.86, 1.06, 0.94, 1.06, 0.94
    82, 'CHF1262  100',       100, 2,    2,    2, 1,       0.975,      -18.66, 1.06, 0.94, 1.06, 0.94
    83, 'POR1430T 100',       100, 1,    2,    2, 1,      1.0985,       -5.38, 1.06, 0.94, 1.06, 0.94
    84, 'WIN1573A 100',       100, 1,    2,    2, 1,      1.1156,       -9.44, 1.06, 0.94, 1.06, 0.94
    85, 'STR1574A 100',       100, 1,    2,    2, 1,      1.1165,      -13.05, 1.06, 0.94, 1.06, 0.94
    86, 'DET15765 100',       100, 1,    2,    2, 1,      1.0567,      -14.01, 1.06, 0.94, 1.06, 0.94
    87, 'OWE16165 100',       100, 1,    2,    2, 1,      1.0652,       -7.17, 1.06, 0.94, 1.06, 0.94
    88, 'OWN16284 100',       100, 1,    2,    2, 1,      1.1094,       -8.35, 1.06, 0.94, 1.06, 0.94
    89, 'CAN1751T 100',       100, 2,    2,    2, 1,       1.066,        3.68, 1.06, 0.94, 1.06, 0.94
    90, 'AGU1752T 100',       100, 2,    2,    2, 1,        0.95,       -7.35, 1.06, 0.94, 1.06, 0.94
    91, 'ARN1754T 100',       100, 2,    2,    2, 1,           1,       -9.28, 1.06, 0.94, 1.06, 0.94
    92, 'AUB17551 100',       100, 1,    2,    2, 1,      0.9561,      -12.75, 1.06, 0.94, 1.06, 0.94
    93, 'BRU1771318.5',      18.5, 2,    2,    2, 1,           1,       -1.92, 1.06, 0.94, 1.06, 0.94
    94, 'CAM17761 100',       100, 2,    2,    2, 1,        1.02,       -0.74, 1.06, 0.94, 1.06, 0.94
    95, 'CAR1777T 100',       100, 2,    2,    2, 1,        0.92,       18.88, 1.06, 0.94, 1.06, 0.94
    96, 'CHE17801 100',       100, 2,    2,    2, 1,           1,       -8.98, 1.06, 0.94, 1.06, 0.94
    97, 'DEC1782T 100',       100, 2,    2,    2, 1,       0.967,       -4.34, 1.06, 0.94, 1.06, 0.94
    98, 'DES17831 100',       100, 2,    2,    2, 1,        0.97,        5.19, 1.06, 0.94, 1.06, 0.94
    99, 'DOU1793T  18',        18, 2,    2,    2, 1,           1,         1.1, 1.06, 0.94, 1.06, 0.94
   100, 'HOL17961 100',       100, 2,    2,    2, 1,       1.014,         0.7, 1.06, 0.94, 1.06, 0.94
   101, 'LAK18068 100',       100, 2,    2,    2, 1,       1.039,       -6.09, 1.06, 0.94, 1.06, 0.94
   102, 'LAM18071 100',       100, 2,    2,    2, 1,       1.019,       -4.76, 1.06, 0.94, 1.06, 0.94
   103, 'LON1815T 100',       100, 2,    2,    2, 1,           1,        1.51, 1.06, 0.94, 1.06, 0.94
   104, 'NAN18205 100',       100, 2,    2,    2, 1,      1.0059,       13.68, 1.06, 0.94, 1.06, 0.94
   105, 'PIC18252 100',       100, 2,    2,    2, 1,       1.007,        -2.8, 1.06, 0.94, 1.06, 0.94
   106, 'PIC18263 100',       100, 2,    2,    2, 1,       1.005,       -2.75, 1.06, 0.94, 1.06, 0.94
   107, 'RED1830T 100',       100, 1,    2,    2, 1,      1.0211,      -13.57, 1.06, 0.94, 1.06, 0.94
   108, 'SAU18311 100',       100, 2,    2,    2, 1,       1.014,      -14.03, 1.06, 0.94, 1.06, 0.94
   109, 'STW18435 100',       100, 2,    2,    2, 1,       0.915,      -18.46, 1.06, 0.94, 1.06, 0.94
   110, 'BRU1853118.5',      18.5, 2,    2,    2, 1,           1,       -1.31, 1.06, 0.94, 1.06, 0.94
   111, 'NAN18563 100',       100, 2,    2,    2, 1,           1,        7.97, 1.06, 0.94, 1.06, 0.94
   112, 'LAK18637 100',       100, 2,    2,    2, 1,       1.037,       -6.26, 1.06, 0.94, 1.06, 0.94
   113, 'BRU18705  24',        24, 1,    2,    2, 1,       0.978,       -4.39, 1.06, 0.94, 1.06, 0.94
   114, 'BRU18736  24',        24, 1,    2,    2, 1,       0.978,       -4.39, 1.06, 0.94, 1.06, 0.94
   115, '18C2007E 100',       100, 2,    1,    1, 1,       1.049,      -15.61, 1.06, 0.94, 1.06, 0.94
   116, '18H2016O 100',       100, 2,    1,    1, 1,       1.043,      -16.86, 1.06, 0.94, 1.06, 0.94
   117, '19B2051R 100',       100, 2,    2,    2, 1,        1.03,      -15.32, 1.06, 0.94, 1.06, 0.94
   118, '19M20792 100',       100, 2,    2,    2, 1,        1.01,      -17.79, 1.06, 0.94, 1.06, 0.94
   119, 'AK 2152  100',       100, 2,    2,    2, 1,       1.013,      -59.41, 1.06, 0.94, 1.06, 0.94
   120, 'ALB21531 100',       100, 1,    2,    2, 1,      1.0331,       -51.6, 1.06, 0.94, 1.06, 0.94
   121, 'CHA2184G 100',       100, 2,    2,    2, 1,       1.046,       -20.2, 1.06, 0.94, 1.06, 0.94
   122, 'DUN22033 100',       100, 2,    2,    2, 1,           1,       -2.79, 1.06, 0.94, 1.06, 0.94
   123, 'GOU2246G 100',       100, 1,    2,    2, 1,      1.0171,      -33.12, 1.06, 0.94, 1.06, 0.94
   124, 'HNT2264G 100',       100, 2,    2,    2, 1,           1,       -1.89, 1.06, 0.94, 1.06, 0.94
   125, 'MIL2296G 100',       100, 1,    2,    2, 1,      1.0084,      -32.59, 1.06, 0.94, 1.06, 0.94
   126, 'SHO23701 100',       100, 1,    2,    2, 1,      1.0524,       -73.9, 1.06, 0.94, 1.06, 0.94
   127, 'BEA24522 100',       100, 1,    2,    2, 1,       1.007,       -36.4, 1.06, 0.94, 1.06, 0.94
   128, 'BR.24593 100',       100, 2,    2,    2, 1,       1.025,      -39.71, 1.06, 0.94, 1.06, 0.94
   129, 'NOR25181 100',       100, 1,    2,    2, 1,      0.9802,      -73.07, 1.06, 0.94, 1.06, 0.94
   130, 'BER26011 100',       100, 2,    1,    1, 1,       1.057,      -51.87, 1.06, 0.94, 1.06, 0.94
   131, 'CLV2609F 100',       100, 2,    1,    1, 1,       1.042,      -24.32, 1.06, 0.94, 1.06, 0.94
   132, 'ERI2616. 100',       100, 2,    1,    1, 1,       1.042,       -7.24, 1.06, 0.94, 1.06, 0.94
   133, 'WAR2645  100',       100, 1,    2,    2, 1,      1.0922,       -11.6, 1.06, 0.94, 1.06, 0.94
   134, 'ALL2651  100',       100, 2,    1,    1, 1,       1.044,      -10.82, 1.06, 0.94, 1.06, 0.94
   135, 'BD 26524 100',       100, 2,    1,    1, 1,       1.107,       29.04, 1.06, 0.94, 1.06, 0.94
   136, 'CAL26541 100',       100, 2,    1,    1, 1,       1.083,        4.39, 1.06, 0.94, 1.06, 0.94
   137, 'CAP2655  100',       100, 2,    1,    1, 1,       1.064,      -72.73, 1.06, 0.94, 1.06, 0.94
   138, 'PIN26637 100',       100, 1,    2,    2, 1,      1.1138,       12.01, 1.06, 0.94, 1.06, 0.94
   139, 'SPP2666N 100',       100, 2,    1,    1, 1,        1.04,      -10.56, 1.06, 0.94, 1.06, 0.94
   140, 'SPP2669H 100',       100, 2,    1,    1, 1,        1.05,      -26.16, 1.06, 0.94, 1.06, 0.94
   141, 'VER2674N 100',       100, 2,    1,    1, 1,       1.053,       -9.12, 1.06, 0.94, 1.06, 0.94
   142, '01A2679R 100',       100, 2,    1,    1, 1,       1.155,      -10.73, 1.06, 0.94, 1.06, 0.94
   143, '03D2699E 100',       100, 2,    1,    1, 1,       1.031,      -13.66, 1.06, 0.94, 1.06, 0.94
   144, '3BR2719  100',       100, 2,    1,    1, 1,       0.997,       -8.58, 1.06, 0.94, 1.06, 0.94
   145, '8BO2739  100',       100, 3,    1,    1, 1,       1.052,        5.02, 1.06, 0.94, 1.06, 0.94
0 / END OF BUS DATA, BEGIN LOAD DATA
    34,  1, 1,    2,    2,     45.05,     46.56, 0, 0, 0, 0, 1, 1, 0
    35,  1, 1,    2,    2,     49.19,     27.53, 0, 0, 0, 0, 1, 1, 0
    51,  1, 1,    2,    2,     58.45,     28.44, 0, 0, 0, 0, 1, 1, 0
    58,  1, 1,    2,    2,      76.3,     -10.8, 0, 0, 0, 0, 1, 1, 0
    66,  1, 1,    2,    2,     102.2,      26.7, 0, 0, 0, 0, 1, 1, 0
    74,  1, 1,    2,    2,      81.9,      43.7, 0, 0, 0, 0, 1, 1, 0
    78,  1, 1,    2,    2,        89,      26.8, 0, 0, 0, 0, 1, 1, 0
    79,  1, 1,    2,    2,       9.1,         3, 0, 0, 0, 0, 1, 1, 0
    80,  1, 1,    2,    2,      17.1,         5, 0, 0, 0, 0, 1, 1, 0
    81,  1, 1,    2,    2,      82.2,     -93.1, 0, 0, 0, 0, 1, 1, 0
    82,  1, 1,    2,    2,       2.1,       1.1, 0, 0, 0, 0, 1, 1, 0
    84,  1, 1,    2,    2,      24.3,       8.2, 0, 0, 0, 0, 1, 1, 0
    85,  1, 1,    2,    2,      27.4,       0.3, 0, 0, 0, 0, 1, 1, 0
    88,  1, 1,    2,    2,        69,      20.9, 0, 0, 0, 0, 1, 1, 0
    89,  1, 1,    2,    2,       0.6,       0.2, 0, 0, 0, 0, 1, 1, 0
    90,  1, 1,    2,    2,       4.6,       1.5, 0, 0, 0, 0, 1, 1, 0
    93,  1, 1,    2,    2,     100.4,      73.2, 0, 0, 0, 0, 1, 1, 0
    94,  1, 1,    2,    2,      15.4,       7.6, 0, 0, 0, 0, 1, 1, 0
    95,  1, 1,    2,    2,       6.7,       2.2, 0, 0, 0, 0, 1, 1, 0
    99,  1, 1,    2,    2,     10.46,      5.23, 0, 0, 0, 0, 1, 1, 0
   101,  1, 1,    2,    2,      17.8,       4.5, 0, 0, 0, 0, 1, 1, 0
   102,  1, 1,    2,    2,      37.6,       9.2, 0, 0, 0, 0, 1, 1, 0
   104,  1, 1,    2,    2,      30.2,       7.6, 0, 0, 0, 0, 1, 1, 0
   105,  1, 1,    2,    2,        96,     167.4, 0, 0, 0, 0, 1, 1, 0
   106,  1, 1,    2,    2,        64,        16, 0, 0, 0, 0, 1, 1, 0
   107,  1, 1,    2,    2,     -17.5,     -12.8, 0, 0, 0, 0, 1, 1, 0
   110,  1, 1,    2,    2,     100.4,      73.2, 0, 0, 0, 0, 1, 1, 0
   111,  1, 1,    2,    2,      60.4,      1166, 0, 0, 0, 0, 1, 1, 0
   112,  1, 1,    2,    2,      18.6,       4.6, 0, 0, 0, 0, 1, 1, 0
   115,  1, 1,    1,    1,     683.5,     184.7, 0, 0, 0, 0, 1, 1, 0
   116,  1, 1,    1,    1,     792.6,     315.5, 0, 0, 0, 0, 1, 1, 0
   117,  1, 1,    2,    2,     485.3,      71.4, 0, 0, 0, 0, 1, 1, 0
   118,  1, 1,    2,    2,     651.9,     328.4, 0, 0, 0, 0, 1, 1, 0
   119,  1, 1,    2,    2,      2094,      3774, 0, 0, 0, 0, 1, 1, 0
   120,  1, 1,    2,    2,      -408,     175.1, 0, 0, 0, 0, 1, 1, 0
   121,  1, 1,    2,    2,     237.7,     -17.3, 0, 0, 0, 0, 1, 1, 0
   122,  1, 1,    2,    2,      29.2,         7, 0, 0, 0, 0, 1, 1, 0
   123,  1, 1,    2,    2,       -84,       -19, 0, 0, 0, 0, 1, 1, 0
   124,  1, 1,    2,    2,      94.1,     780.3, 0, 0, 0, 0, 1, 1, 0
   125,  1, 1,    2,    2,      -712,      -319, 0, 0, 0, 0, 1, 1, 0
   126,  1, 1,    2,    2,      -333,      -160, 0, 0, 0, 0, 1, 1, 0
   127,  1, 1,    2,    2,      -546,       -72, 0, 0, 0, 0, 1, 1, 0
   128,  1, 1,    2,    2,      4075,     703.5, 0, 0, 0, 0, 1, 1, 0
   129,  1, 1,    2,    2,      -482,      -122, 0, 0, 0, 0, 1, 1, 0
   130,  1, 1,    1,    1,      4328,     944.3, 0, 0, 0, 0, 1, 1, 0
   131,  1, 1,    1,    1,     21840,      4320, 0, 0, 0, 0, 1, 1, 0
   132,  1, 1,    1,    1,     491.9,     110.2, 0, 0, 0, 0, 1, 1, 0
   133,  1, 1,    2,    2,       -83,     -36.3, 0, 0, 0, 0, 1, 1, 0
   134,  1, 1,    1,    1,     22309,      7402, 0, 0, 0, 0, 1, 1, 0
   135,  1, 1,    1,    1,      4298,      1264, 0, 0, 0, 0, 1, 1, 0
   136,  1, 1,    1,    1,     52951,     13552, 0, 0, 0, 0, 1, 1, 0
   137,  1, 1,    1,    1,     12946,      2608, 0, 0, 0, 0, 1, 1, 0
   138,  1, 1,    2,    2,      -363,      -188, 0, 0, 0, 0, 1, 1, 0
   139,  1, 1,    1,    1,     57718,     13936, 0, 0, 0, 0, 1, 1, 0
   140,  1, 1,    1,    1,     24775,      6676, 0, 0, 0, 0, 1, 1, 0
   141,  1, 1,    1,    1,     32799,     11361, 0, 0, 0, 0, 1, 1, 0
   142,  1, 1,    1,    1,     17737,      3934, 0, 0, 0, 0, 1, 1, 0
   143,  1, 1,    1,    1,      4672,      1709, 0, 0, 0, 0, 1, 1, 0
   144,  1, 1,    1,    1,      9602,      2203, 0, 0, 0, 0, 1, 1, 0
   145,  1, 1,    1,    1,      9173,      1555, 0, 0, 0, 0, 1, 1, 0
0 / END OF LOAD DATA, BEGIN FIXED SHUNT DATA
     3, 1, 1,       0,    -126
     4, 1, 1,       0,    -126
     5, 1, 1,       0,    -126
    15, 1, 1,       0,    -126
    16, 1, 1,       0,    -126
    17, 1, 1,       0,    -250
    18, 1, 1,       0,    -126
    19, 1, 1,       0,     -58
    28, 1, 1,       0,    -126
    29, 1, 1,       0,    -126
    41, 1, 1,      54,     -10
    42, 1, 1,    54.8,     -10
    47, 1, 1,    15.2,    5.37
    48, 1, 1,    13.8,     5.2
    52, 1, 1,      23,    -9.7
    53, 1, 1,    23.2,    -9.7
    54, 1, 1,    18.8,    -9.3
    55, 1, 1,    18.7,    -9.2
    56, 1, 1,    18.6,    -7.5
    57, 1, 1,    18.8,      -7
    58, 1, 1,     121,     140
    59, 1, 1,     508,    8.63
    60, 1, 1,     201,     165
    61, 1, 1,       0,     149
    63, 1, 1,     823,     525
    64, 1, 1,     123,     -26
    65, 1, 1,     124,     -26
    66, 1, 1,     216,    1897
    67, 1, 1,    1821,    1280
    68, 1, 1,    56.3,     -25
    69, 1, 1,     971,    -144
    70, 1, 1,     103,     -86
    71, 1, 1,     106,    -122
    72, 1, 1,    1019,    24.6
    73, 1, 1,    1222,     841
    74, 1, 1,     857,     574
    75, 1, 1,     387,     199
    76, 1, 1,    -667,    -185
    77, 1, 1,       0,    -125
    79, 1, 1,     238,    27.1
    80, 1, 1,   -0.08,    29.9
    81, 1, 1,      70,     -47
    82, 1, 1,     111,     -28
    83, 1, 1,     105,   -0.42
    86, 1, 1,     292,     -22
    87, 1, 1,    37.7,     -47
    89, 1, 1,     678,    71.1
    90, 1, 1,    29.5,     -19
    91, 1, 1,    19.3,     -27
    92, 1, 1,    43.4,     -43
    94, 1, 1,     140,    -141
    95, 1, 1,    27.2,     -58
    96, 1, 1,    47.8,     -45
    97, 1, 1,     129,    -177
    98, 1, 1,    82.1,    -121
   100, 1, 1,    59.1,    -101
   101, 1, 1,    64.7,    -238
   102, 1, 1,     458,    -619
   103, 1, 1,    62.4,     -45
   105, 1, 1,    24.2,    -999
   106, 1, 1,    36.9,    -719
   107, 1, 1,    28.8,     -22
   108, 1, 1,     520,    -244
   109, 1, 1,    84.5,     -47
   111, 1, 1,    23.3,    -999
   112, 1, 1,    64.3,    -236
   115, 1, 1,    2856,    9.41
   116, 1, 1,    1930,    -195
   117, 1, 1,    2410,     -54
   118, 1, 1,    4788,    -979
   119, 1, 1,    9999,    -999
   120, 1, 1,    2026,     855
   121, 1, 1,     306,    1055
   122, 1, 1,     397,     -61
   123, 1, 1,     118,     1.4
   124, 1, 1,     766,    -999
   125, 1, 1,    2831,     -71
   126, 1, 1,    1604,     347
   127, 1, 1,     305,     -51
   128, 1, 1,    5252,    -472
   129, 1, 1,    3855,     387
   130, 1, 1,    3830,     -91
   131, 1, 1,    5145,    -780
   132, 1, 1,    1239,    -226
   133, 1, 1,     103,    -5.9
   134, 1, 1,    -141,     -78
   135, 1, 1,    -999,     835
   136, 1, 1,    -999,     375
   137, 1, 1,     499,    -219
   138, 1, 1,     433,     -81
   139, 1, 1,    1609,    -999
   140, 1, 1,    -289,     -77
   141, 1, 1,    5212,    -999
   142, 1, 1,    4323,    2210
   143, 1, 1,     586,    -999
   144, 1, 1,    -436,    -999
   145, 1, 1,    -999,     457
0 / END OF FIXED SHUNT DATA, BEGIN GENERATOR DATA
    60,  1,        51,     32.92,      53.4,     -20.4,    1.137, 0,     100, 0, 1, 0, 0, 1, 1, 100,       151,         0, 1, 1, 0, 1, 0, 1, 0, 1, 0, 1
    67,  1,      1486,     285.2,     891.6,      -594,     1.09, 0,     100, 0, 1, 0, 0, 1, 1, 100,      1586,         0, 1, 1, 0, 1, 0, 1, 0, 1, 0, 1
    79,  1,     250.2,    -15.95,     150.1,      -100,    1.052, 0,     100, 0, 1, 0, 0, 1, 1, 100,     350.2,         0, 1, 1, 0, 1, 0, 1, 0, 1, 0, 1
    80,  1,        47,    -15.06,      28.2,     -18.8,    1.069, 0,     100, 0, 1, 0, 0, 1, 1, 100,       147,         0, 1, 1, 0, 1, 0, 1, 0, 1, 0, 1
    82,  1,        70,     17.15,        42,       -28,    0.975, 0,     100, 0, 1, 0, 0, 1, 1, 100,       170,         0, 1, 1, 0, 1, 0, 1, 0, 1, 0, 1
    89,  1,       673,    136.39,     403.8,      -269,    1.066, 0,     100, 0, 1, 0, 0, 1, 1, 100,       773,         0, 1, 1, 0, 1, 0, 1, 0, 1, 0, 1
    90,  1,        22,     -3.87,      13.2,      -8.8,     0.95, 0,     100, 0, 1, 0, 0, 1, 1, 100,       122,         0, 1, 1, 0, 1, 0, 1, 0, 1, 0, 1
    91,  1,        64,     -1.54,      38.4,     -25.6,        1, 0,     100, 0, 1, 0, 0, 1, 1, 100,       164,         0, 1, 1, 0, 1, 0, 1, 0, 1, 0, 1
    93,  1,       700,    373.81,       766,      -520,        1, 0,     100, 0, 1, 0, 0, 1, 1, 100,       800,         0, 1, 1, 0, 1, 0, 1, 0, 1, 0, 1
    94,  1,       300,     19.05,       288,      -192,     1.02, 0,     100, 0, 1, 0, 0, 1, 1, 100,       400,         0, 1, 1, 0, 1, 0, 1, 0, 1, 0, 1
    95,  1,       131,     10.12,     108.6,     -72.4,     0.92, 0,     100, 0, 1, 0, 0, 1, 1, 100,       231,         0, 1, 1, 0, 1, 0, 1, 0, 1, 0, 1
    96,  1,        60,     21.11,        36,       -24,        1, 0,     100, 0, 1, 0, 0, 1, 1, 100,       160,         0, 1, 1, 0, 1, 0, 1, 0, 1, 0, 1
    97,  1,       140,     45.63,        84,       -56,    0.967, 0,     100, 0, 1, 0, 0, 1, 1, 100,       240,         0, 1, 1, 0, 1, 0, 1, 0, 1, 0, 1
    98,  1,       426,    -32.73,     255.6,      -170,     0.97, 0,     100, 0, 1, 0, 0, 1, 1, 100,       526,         0, 1, 1, 0, 1, 0, 1, 0, 1, 0, 1
    99,  1,       200,     -8.36,       110,      -110,        1, 0,     100, 0, 1, 0, 0, 1, 1, 100,       300,         0, 1, 1, 0, 1, 0, 1, 0, 1, 0, 1
   100,  1,       170,     58.72,       102,       -68,    1.014, 0,     100, 0, 1, 0, 0, 1, 1, 100,       270,         0, 1, 1, 0, 1, 0, 1, 0, 1, 0, 1
   101,  1,     310.9,    148.66,     186.5,      -124,    1.039, 0,     100, 0, 1, 0, 0, 1, 1, 100,     410.9,         0, 1, 1, 0, 1, 0, 1, 0, 1, 0, 1
   102,  1,      2040,     488.9,       640,         0,    1.019, 0,     100, 0, 1, 0, 0, 1, 1, 100,      2140,         0, 1, 1, 0, 1, 0, 1, 0, 1, 0, 1
   103,  1,       135,      4.96,        81,       -54,        1, 0,     100, 0, 1, 0, 0, 1, 1, 100,       235,         0, 1, 1, 0, 1, 0, 1, 0, 1, 0, 1
   104,  1,      2000,       500,       500,         0,    1.045, 0,     100, 0, 1, 0, 0, 1, 1, 100,      2100,         0, 1, 1, 0, 1, 0, 1, 0, 1, 0, 1
   105,  1,      1620,    388.34,      1008,         0,    1.007, 0,     100, 0, 1, 0, 0, 1, 1, 100,      1720,         0, 1, 1, 0, 1, 0, 1, 0, 1, 0, 1
   106,  1,      1080,    209.36,       671,         0,    1.005, 0,     100, 0, 1, 0, 0, 1, 1, 100,      1180,         0, 1, 1, 0, 1, 0, 1, 0, 1, 0, 1
   108,  1,       800,     77.28,       480,      -320,    1.014, 0,     100, 0, 1, 0, 0, 1, 1, 100,       900,         0, 1, 1, 0, 1, 0, 1, 0, 1, 0, 1
   109,  1,        52,    -15.55,      31.2,     -20.8,    0.915, 0,     100, 0, 1, 0, 0, 1, 1, 100,       152,         0, 1, 1, 0, 1, 0, 1, 0, 1, 0, 1
   110,  1,       700,    519.84,       766,         0,        1, 0,     100, 0, 1, 0, 0, 1, 1, 100,       800,         0, 1, 1, 0, 1, 0, 1, 0, 1, 0, 1
   111,  1,      2000,    563.72,      1000,         0,        1, 0,     100, 0, 1, 0, 0, 1, 1, 100,      2100,         0, 1, 1, 0, 1, 0, 1, 0, 1, 0, 1
   112,  1,       300,    140.11,       160,         0,    1.037, 0,     100, 0, 1, 0, 0, 1, 1, 100,       400,         0, 1, 1, 0, 1, 0, 1, 0, 1, 0, 1
   115,  1,      2493,    142.72,      1496,      -997,    1.049, 0,     100, 0, 1, 0, 0, 1, 1, 100,      2593,         0, 1, 1, 0, 1, 0, 1, 0, 1, 0, 1
   116,  1,      2713,    631.84,      1628,     -1085,    1.043, 0,     100, 0, 1, 0, 0, 1, 1, 100,      2813,         0, 1, 1, 0, 1, 0, 1, 0, 1, 0, 1
   117,  1,      2627,    258.54,      1576,     -1051,     1.03, 0,     100, 0, 1, 0, 0, 1, 1, 100,      2727,         0, 1, 1, 0, 1, 0, 1, 0, 1, 0, 1
   118,  1,      4220,    660.38,      2532,     -1688,     1.01, 0,     100, 0, 1, 0, 0, 1, 1, 100,      4320,         0, 1, 1, 0, 1, 0, 1, 0, 1, 0, 1
   119,  1,      8954,   4748.48,      5373,     -3582,    1.013, 0,     100, 0, 1, 0, 0, 1, 1, 100,      9054,         0, 1, 1, 0, 1, 0, 1, 0, 1, 0, 1
   121,  1,      2997,   -160.22,      1798,     -1199,    1.046, 0,     100, 0, 1, 0, 0, 1, 1, 100,      3097,         0, 1, 1, 0, 1, 0, 1, 0, 1, 0, 1
   122,  1,      1009,    174.04,     605.4,      -404,        1, 0,     100, 0, 1, 0, 0, 1, 1, 100,      1109,         0, 1, 1, 0, 1, 0, 1, 0, 1, 0, 1
   124,  1,      3005,    569.19,      1803,     -1202,        1, 0,     100, 0, 1, 0, 0, 1, 1, 100,      3105,         0, 1, 1, 0, 1, 0, 1, 0, 1, 0, 1
   128,  1,     12963,   2610.82,      7778,     -5185,    1.025, 0,     100, 0, 1, 0, 0, 1, 1, 100,     13063,         0, 1, 1, 0, 1, 0, 1, 0, 1, 0, 1
   130,  1,      5937,   1834.96,      3562,     -2375,    1.057, 0,     100, 0, 1, 0, 0, 1, 1, 100,      6037,         0, 1, 1, 0, 1, 0, 1, 0, 1, 0, 1
   131,  1,     28300,   7473.04,     16980,     -9999,    1.042, 0,     100, 0, 1, 0, 0, 1, 1, 100,     28400,         0, 1, 1, 0, 1, 0, 1, 0, 1, 0, 1
   132,  1,      3095,    633.42,      1857,     -1238,    1.042, 0,     100, 0, 1, 0, 0, 1, 1, 100,      3195,         0, 1, 1, 0, 1, 0, 1, 0, 1, 0, 1
   134,  1,     20626,   7402.14,     12375,     -8250,    1.044, 0,     100, 0, 1, 0, 0, 1, 1, 100,     20726,         0, 1, 1, 0, 1, 0, 1, 0, 1, 0, 1
   135,  1,      5982,   1564.84,      3589,     -2393,    1.107, 0,     100, 0, 1, 0, 0, 1, 1, 100,      6082,         0, 1, 1, 0, 1, 0, 1, 0, 1, 0, 1
   136,  1,     51950,   14453.5,     31170,     -9999,    1.083, 0,     100, 0, 1, 0, 0, 1, 1, 100,     52050,         0, 1, 1, 0, 1, 0, 1, 0, 1, 0, 1
   137,  1,     12068,   3450.76,      7241,     -4827,    1.064, 0,     100, 0, 1, 0, 0, 1, 1, 100,     12168,         0, 1, 1, 0, 1, 0, 1, 0, 1, 0, 1
   139,  1,     56834,  15849.65,     34100,     -9999,     1.04, 0,     100, 0, 1, 0, 0, 1, 1, 100,     56934,         0, 1, 1, 0, 1, 0, 1, 0, 1, 0, 1
   140,  1,     23123,   6710.47,     13874,     -9249,     1.05, 0,     100, 0, 1, 0, 0, 1, 1, 100,     23223,         0, 1, 1, 0, 1, 0, 1, 0, 1, 0, 1
   141,  1,     37911,  11669.52,     22747,     -9999,    1.053, 0,     100, 0, 1, 0, 0, 1, 1, 100,     38011,         0, 1, 1, 0, 1, 0, 1, 0, 1, 0, 1
   142,  1,     24449,   5496.12,     14670,     -9780,    1.155, 0,     100, 0, 1, 0, 0, 1, 1, 100,     24549,         0, 1, 1, 0, 1, 0, 1, 0, 1, 0, 1
   143,  1,      5254,   2158.63,      3152,     -2101,    1.031, 0,     100, 0, 1, 0, 0, 1, 1, 100,      5354,         0, 1, 1, 0, 1, 0, 1, 0, 1, 0, 1
   144,  1,     11397,   2686.85,      6838,     -4559,    0.997, 0,     100, 0, 1, 0, 0, 1, 1, 100,     11497,         0, 1, 1, 0, 1, 0, 1, 0, 1, 0, 1
   145,  1,  14118.62,   2987.15,      9999,     -9999,    1.052, 0,     100, 0, 1, 0, 0, 1, 1, 100,  14218.62,         0, 1, 1, 0, 1, 0, 1, 0, 1, 0, 1
0 / END OF GENERATOR DATA, BEGIN BRANCH DATA
     1,      2, 1,    3e-05,   0.0008,   0.0632,    8659,       0,       0, 0, 0, 0, 0, 1, 1, 0, 1, 1, 0, 1, 0, 1, 0, 1
     1,      2, 2,    3e-05,   0.0008,   0.0632,       0,       0,       0, 0, 0, 0, 0, 1, 1, 0, 1, 1, 0, 1, 0, 1, 0, 1
     1,      6, 1,  0.00194,   0.0209,   2.3792,    8659,       0,       0, 0, 0, 0, 0, 1, 1, 0, 1, 1, 0, 1, 0, 1, 0, 1
     2,      6, 1,  0.00194,   0.0209,   2.3792,    8659,       0,       0, 0, 0, 0, 0, 1, 1, 0, 1, 1, 0, 1, 0, 1, 0, 1
     6,      7, 1,  0.00129,   0.0139,   1.4652,    8659,       0,       0, 0, 0, 0, 0, 1, 1, 0, 1, 1, 0, 1, 0, 1, 0, 1
     6,      9, 1,  0.00016,   0.0017,   0.1752,    8659,       0,       0, 0, 0, 0, 0, 1, 1, 0, 1, 1, 0, 1, 0, 1, 0, 1
     6,     10, 1,  0.00016,   0.0017,   0.1752,    8659,       0,       0, 0, 0, 0, 0, 1, 1, 0, 1, 1, 0, 1, 0, 1, 0, 1
     6,     12, 1,   0.0002,   0.0021,   0.8776,    8659,       0,       0, 0, 0, 0, 0, 1, 1, 0, 1, 1, 0, 1, 0, 1, 0, 1
     6,     12, 2,   0.0002,   0.0021,   0.8776,    8659,       0,       0, 0, 0, 0, 0, 1, 1, 0, 1, 1, 0, 1, 0, 1, 0, 1
     8,     66, 1,   0.0002,   0.0299,        0,       0,       0,       0, 0, 0, 0, 0, 1, 1, 0, 1, 1, 0, 1, 0, 1, 0, 1
     8,     66, 2,   0.0002,   0.0221,        0,       0,       0,       0, 0, 0, 0, 0, 1, 1, 0, 1, 1, 0, 1, 0, 1, 0, 1
    11,     69, 1,   0.0002,   0.0262,        0,       0,       0,       0, 0, 0, 0, 0, 1, 1, 0, 1, 1, 0, 1, 0, 1, 0, 1
    12,     14, 1,  0.00096,   0.0091,   0.8556,    8659,       0,       0, 0, 0, 0, 0, 1, 1, 0, 1, 1, 0, 1, 0, 1, 0, 1
    12,     14, 2,  0.00096,   0.0091,   0.8556,    8659,       0,       0, 0, 0, 0, 0, 1, 1, 0, 1, 1, 0, 1, 0, 1, 0, 1
    12,     25, 1,  0.00051,   0.0055,    0.625,    8659,       0,       0, 0, 0, 0, 0, 1, 1, 0, 1, 1, 0, 1, 0, 1, 0, 1
    12,     25, 2,  0.00051,   0.0055,    0.625,    8659,       0,       0, 0, 0, 0, 0, 1, 1, 0, 1, 1, 0, 1, 0, 1, 0, 1
    13,     72, 1,   0.0002,    0.026,        0,       0,       0,       0, 0, 0, 0, 0, 1, 1, 0, 1, 1, 0, 1, 0, 1, 0, 1
    13,     72, 2,   0.0003,   0.0262,        0,       0,       0,       0, 0, 0, 0, 0, 1, 1, 0, 1, 1, 0, 1, 0, 1, 0, 1
    13,     72, 3,   0.0002,    0.026,        0,       0,       0,       0, 0, 0, 0, 0, 1, 1, 0, 1, 1, 0, 1, 0, 1, 0, 1
    14,     17, 1,  0.00339,   0.0367,   3.4582,    8659,       0,       0, 0, 0, 0, 0, 1, 1, 0, 1, 1, 0, 1, 0, 1, 0, 1
    14,     17, 2,  0.00352,   0.0367,   3.4516,    8659,       0,       0, 0, 0, 0, 0, 1, 1, 0, 1, 1, 0, 1, 0, 1, 0, 1
    15,     58, 1,   0.0002,   0.0255,        0,       0,       0,       0, 0, 0, 0, 0, 1, 1, 0, 1, 1, 0, 1, 0, 1, 0, 1
    16,     58, 1,   0.0002,    0.022,        0,       0,       0,       0, 0, 0, 0, 0, 1, 1, 0, 1, 1, 0, 1, 0, 1, 0, 1
    17,     22, 1,  0.00228,   0.0276,   2.6204,    8659,       0,       0, 0, 0, 0, 0, 1, 1, 0, 1, 1, 0, 1, 0, 1, 0, 1
    18,     59, 1,   0.0002,   0.0298,        0,       0,       0,       0, 0, 0, 0, 0, 1, 1, 0, 1, 1, 0, 1, 0, 1, 0, 1
    19,     59, 1,        0,   0.0629,        0,       0,       0,       0, 0, 0, 0, 0, 1, 1, 0, 1, 1, 0, 1, 0, 1, 0, 1
    20,     59, 1,        0,   0.0638,        0,       0,       0,       0, 0, 0, 0, 0, 1, 1, 0, 1, 1, 0, 1, 0, 1, 0, 1
    21,     59, 1,   0.0002,   0.0329,        0,       0,       0,       0, 0, 0, 0, 0, 1, 1, 0, 1, 1, 0, 1, 0, 1, 0, 1
    22,     24, 1,  0.00173,   0.0208,   1.9648,    8659,       0,       0, 0, 0, 0, 0, 1, 1, 0, 1, 1, 0, 1, 0, 1, 0, 1
    23,     83, 1,   0.0004,   0.0595,        0,       0,       0,       0, 0, 0, 0, 0, 1, 1, 0, 1, 1, 0, 1, 0, 1, 0, 1
    23,     83, 2,   0.0003,   0.0597,        0,       0,       0,       0, 0, 0, 0, 0, 1, 1, 0, 1, 1, 0, 1, 0, 1, 0, 1
    25,     27, 1,   0.0023,   0.0266,   3.0508,    8659,       0,       0, 0, 0, 0, 0, 1, 1, 0, 1, 1, 0, 1, 0, 1, 0, 1
    25,     27, 2,   0.0023,   0.0266,   3.0508,    8659,       0,       0, 0, 0, 0, 0, 1, 1, 0, 1, 1, 0, 1, 0, 1, 0, 1
    26,     73, 1,   0.0003,   0.0267,        0,       0,       0,       0, 0, 0, 0, 0, 1, 1, 0, 1, 1, 0, 1, 0, 1, 0, 1
    28,     75, 1,   0.0002,    0.029,        0,       0,       0,       0, 0, 0, 0, 0, 1, 1, 0, 1, 1, 0, 1, 0, 1, 0, 1
    29,     75, 1,   0.0002,   0.0269,        0,       0,       0,       0, 0, 0, 0, 0, 1, 1, 0, 1, 1, 0, 1, 0, 1, 0, 1
    30,     78, 1,        0,   0.0335,        0,       0,       0,       0, 0, 0, 0, 0, 1, 1, 0, 1, 1, 0, 1, 0, 1, 0, 1
    31,     74, 1,   0.0003,   0.0279,        0,       0,       0,       0, 0, 0, 0, 0, 1, 1, 0, 1, 1, 0, 1, 0, 1, 0, 1
    32,     69, 1,   0.0002,   0.0265,        0,       0,       0,       0, 0, 0, 0, 0, 1, 1, 0, 1, 1, 0, 1, 0, 1, 0, 1
    33,     34, 1,    6e-05,   0.0009,   0.0006,     788,       0,       0, 0, 0, 0, 0, 1, 1, 0, 1, 1, 0, 1, 0, 1, 0, 1
    33,     35, 1,    6e-05,   0.0009,   0.0006,     490,       0,       0, 0, 0, 0, 0, 1, 1, 0, 1, 1, 0, 1, 0, 1, 0, 1
    33,     37, 1,  0.00996,   0.0707,   0.1116,       0,       0,       0, 0, 0, 0, 0, 1, 1, 0, 1, 1, 0, 1, 0, 1, 0, 1
    33,     38, 1,  0.00995,   0.0693,    0.111,    1155,       0,       0, 0, 0, 0, 0, 1, 1, 0, 1, 1, 0, 1, 0, 1, 0, 1
    33,     39, 1,   0.0085,   0.0699,   0.1006,    1208,       0,       0, 0, 0, 0, 0, 1, 1, 0, 1, 1, 0, 1, 0, 1, 0, 1
    33,     40, 1,  0.00849,   0.0698,   0.1004,    1208,       0,       0, 0, 0, 0, 0, 1, 1, 0, 1, 1, 0, 1, 0, 1, 0, 1
    33,     49, 1,   0.0056,   0.0493,   0.0778,    1078,       0,       0, 0, 0, 0, 0, 1, 1, 0, 1, 1, 0, 1, 0, 1, 0, 1
    33,     50, 1,   0.0056,   0.0493,   0.0778,    1078,       0,       0, 0, 0, 0, 0, 1, 1, 0, 1, 1, 0, 1, 0, 1, 0, 1
    34,     36, 1,  0.00025,   0.0022,   0.0006,     788,       0,       0, 0, 0, 0, 0, 1, 1, 0, 1, 1, 0, 1, 0, 1, 0, 1
    39,     43, 1,  0.00602,   0.0495,   0.0712,    1208,       0,       0, 0, 0, 0, 0, 1, 1, 0, 1, 1, 0, 1, 0, 1, 0, 1
    40,     44, 1,  0.00603,   0.0496,   0.0714,    1208,       0,       0, 0, 0, 0, 0, 1, 1, 0, 1, 1, 0, 1, 0, 1, 0, 1
    41,     42, 1,   0.0005,   0.1514,        0,       0,       0,       0, 0, 0, 0, 0, 1, 1, 0, 1, 1, 0, 1, 0, 1, 0, 1
    43,     46, 1,  0.00618,   0.0508,   0.0732,    1208,       0,       0, 0, 0, 0, 0, 1, 1, 0, 1, 1, 0, 1, 0, 1, 0, 1
    44,     45, 1,  0.00618,   0.0508,   0.0732,    1208,       0,       0, 0, 0, 0, 0, 1, 1, 0, 1, 1, 0, 1, 0, 1, 0, 1
    45,     61, 1,  0.00445,   0.0366,   0.0526,    1208,       0,       0, 0, 0, 0, 0, 1, 1, 0, 1, 1, 0, 1, 0, 1, 0, 1
    46,     61, 1,  0.00445,   0.0366,   0.0526,    1208,       0,       0, 0, 0, 0, 0, 1, 1, 0, 1, 1, 0, 1, 0, 1, 0, 1
    47,     48, 1,    -0.01,   0.2306,        0,       0,       0,       0, 0, 0, 0, 0, 1, 1, 0, 1, 1, 0, 1, 0, 1, 0, 1
    47,     87, 1,   0.0831,    0.401,        0,       0,       0,       0, 0, 0, 0, 0, 1, 1, 0, 1, 1, 0, 1, 0, 1, 0, 1
    48,     87, 1,   0.0998,    0.436,        0,       0,       0,       0, 0, 0, 0, 0, 1, 1, 0, 1, 1, 0, 1, 0, 1, 0, 1
    49,     51, 1,  0.00898,    0.079,   0.1248,    1078,       0,       0, 0, 0, 0, 0, 1, 1, 0, 1, 1, 0, 1, 0, 1, 0, 1
    50,     51, 1,  0.00898,    0.079,   0.1248,    1078,       0,       0, 0, 0, 0, 0, 1, 1, 0, 1, 1, 0, 1, 0, 1, 0, 1
    52,     53, 1,  -0.0067,   0.3911,        0,       0,       0,       0, 0, 0, 0, 0, 1, 1, 0, 1, 1, 0, 1, 0, 1, 0, 1
    52,     54, 1,   0.0047,   0.0293,   0.0462,       0,       0,       0, 0, 0, 0, 0, 1, 1, 0, 1, 1, 0, 1, 0, 1, 0, 1
    53,     55, 1,   0.0047,   0.0293,   0.0462,       0,       0,       0, 0, 0, 0, 0, 1, 1, 0, 1, 1, 0, 1, 0, 1, 0, 1
    54,     55, 1,  -0.0553,   0.9289,        0,       0,       0,       0, 0, 0, 0, 0, 1, 1, 0, 1, 1, 0, 1, 0, 1, 0, 1
    56,     57, 1,   -0.009,   0.3895,        0,       0,       0,       0, 0, 0, 0, 0, 1, 1, 0, 1, 1, 0, 1, 0, 1, 0, 1
    56,     58, 1,   0.0019,    0.012,   0.0178,       0,       0,       0, 0, 0, 0, 0, 1, 1, 0, 1, 1, 0, 1, 0, 1, 0, 1
    57,     58, 1,   0.0019,    0.012,   0.0178,       0,       0,       0, 0, 0, 0, 0, 1, 1, 0, 1, 1, 0, 1, 0, 1, 0, 1
    58,     59, 1,   0.6674,   2.2175,        0,       0,       0,       0, 0, 0, 0, 0, 1, 1, 0, 1, 1, 0, 1, 0, 1, 0, 1
    58,     72, 1,   0.0302,   0.2364,        0,       0,       0,       0, 0, 0, 0, 0, 1, 1, 0, 1, 1, 0, 1, 0, 1, 0, 1
    58,     87, 1,   0.0863,   0.3906,        0,       0,       0,       0, 0, 0, 0, 0, 1, 1, 0, 1, 1, 0, 1, 0, 1, 0, 1
    58,     98, 1,   0.0131,   0.1765,        0,       0,       0,       0, 0, 0, 0, 0, 1, 1, 0, 1, 1, 0, 1, 0, 1, 0, 1
    58,    100, 1,   0.1193,    1.269,        0,       0,       0,       0, 0, 0, 0, 0, 1, 1, 0, 1, 1, 0, 1, 0, 1, 0, 1
    58,    103, 1,   0.8416,   5.5383,        0,       0,       0,       0, 0, 0, 0, 0, 1, 1, 0, 1, 1, 0, 1, 0, 1, 0, 1
    59,     60, 1,  -0.1803,   5.9659,        0,       0,       0,       0, 0, 0, 0, 0, 1, 1, 0, 1, 1, 0, 1, 0, 1, 0, 1
    59,     72, 1,   0.8613,   3.0485,        0,       0,       0,       0, 0, 0, 0, 0, 1, 1, 0, 1, 1, 0, 1, 0, 1, 0, 1
    59,     79, 1,   0.0099,   0.2644,        0,       0,       0,       0, 0, 0, 0, 0, 1, 1, 0, 1, 1, 0, 1, 0, 1, 0, 1
    59,     80, 1,   0.2876,   2.3898,        0,       0,       0,       0, 0, 0, 0, 0, 1, 1, 0, 1, 1, 0, 1, 0, 1, 0, 1
    59,     89, 1,   0.3421,   9.0571,        0,       0,       0,       0, 0, 0, 0, 0, 1, 1, 0, 1, 1, 0, 1, 0, 1, 0, 1
    59,     92, 1,   -0.007,   0.5678,        0,       0,       0,       0, 0, 0, 0, 0, 1, 1, 0, 1, 1, 0, 1, 0, 1, 0, 1
    59,     94, 1,   0.7041,   5.9885,        0,       0,       0,       0, 0, 0, 0, 0, 1, 1, 0, 1, 1, 0, 1, 0, 1, 0, 1
    59,     98, 1,    0.106,   0.5845,        0,       0,       0,       0, 0, 0, 0, 0, 1, 1, 0, 1, 1, 0, 1, 0, 1, 0, 1
    59,    100, 1,   0.0183,   0.2016,        0,       0,       0,       0, 0, 0, 0, 0, 1, 1, 0, 1, 1, 0, 1, 0, 1, 0, 1
    59,    103, 1,   0.0368,   0.3341,        0,       0,       0,       0, 0, 0, 0, 0, 1, 1, 0, 1, 1, 0, 1, 0, 1, 0, 1
    59,    107, 1,   0.0372,   0.8834,        0,       0,       0,       0, 0, 0, 0, 0, 1, 1, 0, 1, 1, 0, 1, 0, 1, 0, 1
    60,    135, 1,   -1.831,   9.7964,        0,       0,       0,       0, 0, 0, 0, 0, 1, 1, 0, 1, 1, 0, 1, 0, 1, 0, 1
    60,     79, 1,  -0.0375,   1.1068,        0,       0,       0,       0, 0, 0, 0, 0, 1, 1, 0, 1, 1, 0, 1, 0, 1, 0, 1
    60,     80, 1,   0.0655,   2.6441,        0,       0,       0,       0, 0, 0, 0, 0, 1, 1, 0, 1, 1, 0, 1, 0, 1, 0, 1
    60,     90, 1,  -0.0201,   1.5135,        0,       0,       0,       0, 0, 0, 0, 0, 1, 1, 0, 1, 1, 0, 1, 0, 1, 0, 1
    60,     92, 1,   -0.264,   3.7139,        0,       0,       0,       0, 0, 0, 0, 0, 1, 1, 0, 1, 1, 0, 1, 0, 1, 0, 1
    60,     94, 1,   0.0012,   0.0775,        0,       0,       0,       0, 0, 0, 0, 0, 1, 1, 0, 1, 1, 0, 1, 0, 1, 0, 1
    60,     95, 1,  -0.0855,   0.9926,        0,       0,       0,       0, 0, 0, 0, 0, 1, 1, 0, 1, 1, 0, 1, 0, 1, 0, 1
    60,    138, 1,  -0.3639,   1.7936,        0,       0,       0,       0, 0, 0, 0, 0, 1, 1, 0, 1, 1, 0, 1, 0, 1, 0, 1
    62,     86, 1,   0.0036,   0.0501,        0,       0,       0,       0, 0, 0, 0, 0, 1, 1, 0, 1, 1, 0, 1, 0, 1, 0, 1
    62,     86, 2,   0.0013,   0.0838,        0,       0,       0,       0, 0, 0, 0, 0, 1, 1, 0, 1, 1, 0, 1, 0, 1, 0, 1
    63,     64, 1,   0.0147,   0.2825,        0,       0,       0,       0, 0, 0, 0, 0, 1, 1, 0, 1, 1, 0, 1, 0, 1, 0, 1
    63,     65, 1,   0.0147,   0.2813,        0,       0,       0,       0, 0, 0, 0, 0, 1, 1, 0, 1, 1, 0, 1, 0, 1, 0, 1
    63,     66, 1,   0.0056,     0.09,        0,       0,       0,       0, 0, 0, 0, 0, 1, 1, 0, 1, 1, 0, 1, 0, 1, 0, 1
    63,     67, 1,   0.0321,   0.2785,        0,       0,       0,       0, 0, 0, 0, 0, 1, 1, 0, 1, 1, 0, 1, 0, 1, 0, 1
    63,     69, 1,   0.0107,   0.1571,        0,       0,       0,       0, 0, 0, 0, 0, 1, 1, 0, 1, 1, 0, 1, 0, 1, 0, 1
    63,    102, 1,   0.0106,   0.1583,        0,       0,       0,       0, 0, 0, 0, 0, 1, 1, 0, 1, 1, 0, 1, 0, 1, 0, 1
    63,    102, 2,   0.0106,   0.1576,        0,       0,       0,       0, 0, 0, 0, 0, 1, 1, 0, 1, 1, 0, 1, 0, 1, 0, 1
    63,    102, 3,   0.0107,   0.1604,        0,       0,       0,       0, 0, 0, 0, 0, 1, 1, 0, 1, 1, 0, 1, 0, 1, 0, 1
    63,    102, 4,   0.0104,   0.1542,        0,       0,       0,       0, 0, 0, 0, 0, 1, 1, 0, 1, 1, 0, 1, 0, 1, 0, 1
    63,    116, 1,  -0.3897,   6.8588,        0,       0,       0,       0, 0, 0, 0, 0, 1, 1, 0, 1, 1, 0, 1, 0, 1, 0, 1
    63,    117, 1,    0.003,    0.056,        0,       0,       0,       0, 0, 0, 0, 0, 1, 1, 0, 1, 1, 0, 1, 0, 1, 0, 1
    63,    118, 1,  -0.0125,   0.2425,        0,       0,       0,       0, 0, 0, 0, 0, 1, 1, 0, 1, 1, 0, 1, 0, 1, 0, 1
    63,    124, 1,  -0.1265,    2.022,        0,       0,       0,       0, 0, 0, 0, 0, 1, 1, 0, 1, 1, 0, 1, 0, 1, 0, 1
    64,     65, 1,   0.0013,   0.1674,        0,       0,       0,       0, 0, 0, 0, 0, 1, 1, 0, 1, 1, 0, 1, 0, 1, 0, 1
    64,     66, 1,   0.0039,   0.0684,        0,       0,       0,       0, 0, 0, 0, 0, 1, 1, 0, 1, 1, 0, 1, 0, 1, 0, 1
    64,     67, 1,   0.0233,    0.212,        0,       0,       0,       0, 0, 0, 0, 0, 1, 1, 0, 1, 1, 0, 1, 0, 1, 0, 1
    64,     69, 1,   0.0075,   0.1196,        0,       0,       0,       0, 0, 0, 0, 0, 1, 1, 0, 1, 1, 0, 1, 0, 1, 0, 1
    64,     97, 1,  -0.4336,   8.2923,        0,       0,       0,       0, 0, 0, 0, 0, 1, 1, 0, 1, 1, 0, 1, 0, 1, 0, 1
    64,    124, 1,  -0.1041,   1.5375,        0,       0,       0,       0, 0, 0, 0, 0, 1, 1, 0, 1, 1, 0, 1, 0, 1, 0, 1
    65,     66, 1,   0.0039,   0.0682,        0,       0,       0,       0, 0, 0, 0, 0, 1, 1, 0, 1, 1, 0, 1, 0, 1, 0, 1
    65,     67, 1,   0.0233,   0.2111,        0,       0,       0,       0, 0, 0, 0, 0, 1, 1, 0, 1, 1, 0, 1, 0, 1, 0, 1
    65,     69, 1,   0.0075,   0.1191,        0,       0,       0,       0, 0, 0, 0, 0, 1, 1, 0, 1, 1, 0, 1, 0, 1, 0, 1
    65,     97, 1,  -0.4292,   8.2582,        0,       0,       0,       0, 0, 0, 0, 0, 1, 1, 0, 1, 1, 0, 1, 0, 1, 0, 1
    65,    124, 1,  -0.1032,   1.5312,        0,       0,       0,       0, 0, 0, 0, 0, 1, 1, 0, 1, 1, 0, 1, 0, 1, 0, 1
    66,     67, 1,   0.0081,   0.0675,        0,       0,       0,       0, 0, 0, 0, 0, 1, 1, 0, 1, 1, 0, 1, 0, 1, 0, 1
    66,     68, 1,   -2.473,    2.472,        0,       0,       0,       0, 0, 0, 0, 0, 1, 1, 0, 1, 1, 0, 1, 0, 1, 0, 1
    66,     69, 1,   0.0028,   0.0381,        0,       0,       0,       0, 0, 0, 0, 0, 1, 1, 0, 1, 1, 0, 1, 0, 1, 0, 1
    66,     97, 1,  -0.1119,   2.6432,        0,       0,       0,       0, 0, 0, 0, 0, 1, 1, 0, 1, 1, 0, 1, 0, 1, 0, 1
    66,    111, 1,        0,   0.0264,        0,       0,       0,       0, 0, 0, 0, 0, 1, 1, 0, 1, 1, 0, 1, 0, 1, 0, 1
    66,    111, 2,  0.00057,   0.0266,        0,       0,       0,       0, 0, 0, 0, 0, 1, 1, 0, 1, 1, 0, 1, 0, 1, 0, 1
    66,    111, 3,        0,   0.0273,        0,       0,       0,       0, 0, 0, 0, 0, 1, 1, 0, 1, 1, 0, 1, 0, 1, 0, 1
    66,    111, 4,  0.00057,   0.0264,        0,       0,       0,       0, 0, 0, 0, 0, 1, 1, 0, 1, 1, 0, 1, 0, 1, 0, 1
    66,    124, 1,  -0.0283,   0.4902,        0,       0,       0,       0, 0, 0, 0, 0, 1, 1, 0, 1, 1, 0, 1, 0, 1, 0, 1
    67,     68, 1,   -3.443,   3.7172,        0,       0,       0,       0, 0, 0, 0, 0, 1, 1, 0, 1, 1, 0, 1, 0, 1, 0, 1
    67,     69, 1,   0.0061,    0.055,        0,       0,       0,       0, 0, 0, 0, 0, 1, 1, 0, 1, 1, 0, 1, 0, 1, 0, 1
    67,     97, 1,   0.0063,   0.1166,        0,       0,       0,       0, 0, 0, 0, 0, 1, 1, 0, 1, 1, 0, 1, 0, 1, 0, 1
    67,    119, 1,  -0.2213,   9.3918,        0,       0,       0,       0, 0, 0, 0, 0, 1, 1, 0, 1, 1, 0, 1, 0, 1, 0, 1
    67,    120, 1,  -0.0034,   1.7847,        0,       0,       0,       0, 0, 0, 0, 0, 1, 1, 0, 1, 1, 0, 1, 0, 1, 0, 1
    67,    121, 1,   0.0082,     1.17,        0,       0,       0,       0, 0, 0, 0, 0, 1, 1, 0, 1, 1, 0, 1, 0, 1, 0, 1
    67,    122, 1,  -0.0047,   0.4473,        0,       0,       0,       0, 0, 0, 0, 0, 1, 1, 0, 1, 1, 0, 1, 0, 1, 0, 1
    67,    124, 1,   0.0003,   0.0065,        0,       0,       0,       0, 0, 0, 0, 0, 1, 1, 0, 1, 1, 0, 1, 0, 1, 0, 1
    67,    125, 1,   0.0062,   0.2519,        0,       0,       0,       0, 0, 0, 0, 0, 1, 1, 0, 1, 1, 0, 1, 0, 1, 0, 1
    67,    132, 1,  -0.3194,   4.3566,        0,       0,       0,       0, 0, 0, 0, 0, 1, 1, 0, 1, 1, 0, 1, 0, 1, 0, 1
    68,     69, 1,   -0.692,   0.6984,        0,       0,       0,       0, 0, 0, 0, 0, 1, 1, 0, 1, 1, 0, 1, 0, 1, 0, 1
    69,     70, 1,   0.0085,   0.3333,        0,       0,       0,       0, 0, 0, 0, 0, 1, 1, 0, 1, 1, 0, 1, 0, 1, 0, 1
    69,     71, 1,   0.0075,    0.312,        0,       0,       0,       0, 0, 0, 0, 0, 1, 1, 0, 1, 1, 0, 1, 0, 1, 0, 1
    69,     72, 1,   0.0013,     0.01,        0,       0,       0,       0, 0, 0, 0, 0, 1, 1, 0, 1, 1, 0, 1, 0, 1, 0, 1
    69,     73, 1,   0.0098,   0.0747,        0,       0,       0,       0, 0, 0, 0, 0, 1, 1, 0, 1, 1, 0, 1, 0, 1, 0, 1
    69,     74, 1,   0.0135,   0.0741,        0,       0,       0,       0, 0, 0, 0, 0, 1, 1, 0, 1, 1, 0, 1, 0, 1, 0, 1
    69,     97, 1,  -0.0674,   1.5849,        0,       0,       0,       0, 0, 0, 0, 0, 1, 1, 0, 1, 1, 0, 1, 0, 1, 0, 1
    69,    101, 1,   0.0174,   0.2188,        0,       0,       0,       0, 0, 0, 0, 0, 1, 1, 0, 1, 1, 0, 1, 0, 1, 0, 1
    69,    112, 1,   0.0175,   0.2201,        0,       0,       0,       0, 0, 0, 0, 0, 1, 1, 0, 1, 1, 0, 1, 0, 1, 0, 1
    69,    124, 1,  -0.0267,   0.3986,        0,       0,       0,       0, 0, 0, 0, 0, 1, 1, 0, 1, 1, 0, 1, 0, 1, 0, 1
    70,     71, 1,  -0.4891,   2.6613,        0,       0,       0,       0, 0, 0, 0, 0, 1, 1, 0, 1, 1, 0, 1, 0, 1, 0, 1
    70,     72, 1,  -0.0062,   0.1216,        0,       0,       0,       0, 0, 0, 0, 0, 1, 1, 0, 1, 1, 0, 1, 0, 1, 0, 1
    70,     73, 1,  -0.0424,   0.9125,        0,       0,       0,       0, 0, 0, 0, 0, 1, 1, 0, 1, 1, 0, 1, 0, 1, 0, 1
    70,     74, 1,   0.0032,   0.9138,        0,       0,       0,       0, 0, 0, 0, 0, 1, 1, 0, 1, 1, 0, 1, 0, 1, 0, 1
    70,    101, 1,  -0.1248,   1.0409,        0,       0,       0,       0, 0, 0, 0, 0, 1, 1, 0, 1, 1, 0, 1, 0, 1, 0, 1
    70,    112, 1,  -0.1257,   1.0471,        0,       0,       0,       0, 0, 0, 0, 0, 1, 1, 0, 1, 1, 0, 1, 0, 1, 0, 1
    71,     72, 1,   -0.006,   0.1138,        0,       0,       0,       0, 0, 0, 0, 0, 1, 1, 0, 1, 1, 0, 1, 0, 1, 0, 1
    71,     73, 1,  -0.0409,   0.8541,        0,       0,       0,       0, 0, 0, 0, 0, 1, 1, 0, 1, 1, 0, 1, 0, 1, 0, 1
    71,     74, 1,   0.0018,   0.8553,        0,       0,       0,       0, 0, 0, 0, 0, 1, 1, 0, 1, 1, 0, 1, 0, 1, 0, 1
    71,    101, 1,  -0.1592,   1.2303,        0,       0,       0,       0, 0, 0, 0, 0, 1, 1, 0, 1, 1, 0, 1, 0, 1, 0, 1
    71,    112, 1,  -0.1603,   1.2377,        0,       0,       0,       0, 0, 0, 0, 0, 1, 1, 0, 1, 1, 0, 1, 0, 1, 0, 1
    72,     73, 1,   0.0015,   0.0275,        0,       0,       0,       0, 0, 0, 0, 0, 1, 1, 0, 1, 1, 0, 1, 0, 1, 0, 1
    72,     74, 1,   0.0028,   0.0274,        0,       0,       0,       0, 0, 0, 0, 0, 1, 1, 0, 1, 1, 0, 1, 0, 1, 0, 1
    72,     98, 1,   0.0138,   0.2417,        0,       0,       0,       0, 0, 0, 0, 0, 1, 1, 0, 1, 1, 0, 1, 0, 1, 0, 1
    72,    100, 1,   0.1337,   1.7384,        0,       0,       0,       0, 0, 0, 0, 0, 1, 1, 0, 1, 1, 0, 1, 0, 1, 0, 1
    72,    101, 1,   0.0002,   0.0802,        0,       0,       0,       0, 0, 0, 0, 0, 1, 1, 0, 1, 1, 0, 1, 0, 1, 0, 1
    72,    103, 1,   1.0224,   7.5945,        0,       0,       0,       0, 0, 0, 0, 0, 1, 1, 0, 1, 1, 0, 1, 0, 1, 0, 1
    72,    112, 1,   0.0002,   0.0806,        0,       0,       0,       0, 0, 0, 0, 0, 1, 1, 0, 1, 1, 0, 1, 0, 1, 0, 1
    73,     74, 1,  -0.0007,   0.0393,        0,       0,       0,       0, 0, 0, 0, 0, 1, 1, 0, 1, 1, 0, 1, 0, 1, 0, 1
    73,     75, 1,   0.0147,   0.2581,        0,       0,       0,       0, 0, 0, 0, 0, 1, 1, 0, 1, 1, 0, 1, 0, 1, 0, 1
    73,     81, 1,  -0.0122,   0.3068,        0,       0,       0,       0, 0, 0, 0, 0, 1, 1, 0, 1, 1, 0, 1, 0, 1, 0, 1
    73,     82, 1,   0.0036,   2.0169,        0,       0,       0,       0, 0, 0, 0, 0, 1, 1, 0, 1, 1, 0, 1, 0, 1, 0, 1
    73,     91, 1,   0.0271,   0.5732,        0,       0,       0,       0, 0, 0, 0, 0, 1, 1, 0, 1, 1, 0, 1, 0, 1, 0, 1
    73,     96, 1,   0.0245,   0.4805,        0,       0,       0,       0, 0, 0, 0, 0, 1, 1, 0, 1, 1, 0, 1, 0, 1, 0, 1
    73,    101, 1,   0.0044,   0.6014,        0,       0,       0,       0, 0, 0, 0, 0, 1, 1, 0, 1, 1, 0, 1, 0, 1, 0, 1
    73,    105, 1,   0.0007,   0.0325,        0,       0,       0,       0, 0, 0, 0, 0, 1, 1, 0, 1, 1, 0, 1, 0, 1, 0, 1
    73,    105, 2,   0.0007,   0.0325,        0,       0,       0,       0, 0, 0, 0, 0, 1, 1, 0, 1, 1, 0, 1, 0, 1, 0, 1
    73,    105, 3,   0.0006,   0.0295,        0,       0,       0,       0, 0, 0, 0, 0, 1, 1, 0, 1, 1, 0, 1, 0, 1, 0, 1
    73,    108, 1,  -0.0182,   0.5832,        0,       0,       0,       0, 0, 0, 0, 0, 1, 1, 0, 1, 1, 0, 1, 0, 1, 0, 1
    73,    109, 1,   0.0524,   3.0059,        0,       0,       0,       0, 0, 0, 0, 0, 1, 1, 0, 1, 1, 0, 1, 0, 1, 0, 1
    73,    112, 1,   0.0043,    0.605,        0,       0,       0,       0, 0, 0, 0, 0, 1, 1, 0, 1, 1, 0, 1, 0, 1, 0, 1
    73,    121, 1,  -0.0268,   1.7653,        0,       0,       0,       0, 0, 0, 0, 0, 1, 1, 0, 1, 1, 0, 1, 0, 1, 0, 1
    74,     75, 1,   0.0215,   0.3277,        0,       0,       0,       0, 0, 0, 0, 0, 1, 1, 0, 1, 1, 0, 1, 0, 1, 0, 1
    74,     81, 1,  -0.0333,   0.4631,        0,       0,       0,       0, 0, 0, 0, 0, 1, 1, 0, 1, 1, 0, 1, 0, 1, 0, 1
    74,     82, 1,  -0.0098,   1.9859,        0,       0,       0,       0, 0, 0, 0, 0, 1, 1, 0, 1, 1, 0, 1, 0, 1, 0, 1
    74,     91, 1,   0.0413,   0.7511,        0,       0,       0,       0, 0, 0, 0, 0, 1, 1, 0, 1, 1, 0, 1, 0, 1, 0, 1
    74,     96, 1,    0.435,   7.6901,        0,       0,       0,       0, 0, 0, 0, 0, 1, 1, 0, 1, 1, 0, 1, 0, 1, 0, 1
    74,    101, 1,   0.0344,   0.6005,        0,       0,       0,       0, 0, 0, 0, 0, 1, 1, 0, 1, 1, 0, 1, 0, 1, 0, 1
    74,    106, 1,    0.003,   0.0335,        0,       0,       0,       0, 0, 0, 0, 0, 1, 1, 0, 1, 1, 0, 1, 0, 1, 0, 1
    74,    106, 2,   0.0005,   0.0328,        0,       0,       0,       0, 0, 0, 0, 0, 1, 1, 0, 1, 1, 0, 1, 0, 1, 0, 1
    74,    108, 1,  -0.0187,   0.4544,        0,       0,       0,       0, 0, 0, 0, 0, 1, 1, 0, 1, 1, 0, 1, 0, 1, 0, 1
    74,    109, 1,   0.1004,   3.4697,        0,       0,       0,       0, 0, 0, 0, 0, 1, 1, 0, 1, 1, 0, 1, 0, 1, 0, 1
    74,    112, 1,   0.0345,   0.6042,        0,       0,       0,       0, 0, 0, 0, 0, 1, 1, 0, 1, 1, 0, 1, 0, 1, 0, 1
    74,    121, 1,  -0.0348,   1.3757,        0,       0,       0,       0, 0, 0, 0, 0, 1, 1, 0, 1, 1, 0, 1, 0, 1, 0, 1
    75,     82, 1,   0.0777,    1.125,        0,       0,       0,       0, 0, 0, 0, 0, 1, 1, 0, 1, 1, 0, 1, 0, 1, 0, 1
    75,     91, 1,  -0.2255,   3.1442,        0,       0,       0,       0, 0, 0, 0, 0, 1, 1, 0, 1, 1, 0, 1, 0, 1, 0, 1
    75,     96, 1,  -0.4516,    4.631,        0,       0,       0,       0, 0, 0, 0, 0, 1, 1, 0, 1, 1, 0, 1, 0, 1, 0, 1
    75,    108, 1,   0.0042,   0.1049,        0,       0,       0,       0, 0, 0, 0, 0, 1, 1, 0, 1, 1, 0, 1, 0, 1, 0, 1
    75,    109, 1,   0.1046,   1.4465,        0,       0,       0,       0, 0, 0, 0, 0, 1, 1, 0, 1, 1, 0, 1, 0, 1, 0, 1
    75,    121, 1,   0.0178,   0.3172,        0,       0,       0,       0, 0, 0, 0, 0, 1, 1, 0, 1, 1, 0, 1, 0, 1, 0, 1
    76,     77, 1,   0.0002,    0.016,        0,       0,       0,       0, 0, 0, 0, 0, 1, 1, 0, 1, 1, 0, 1, 0, 1, 0, 1
    76,     89, 1,   0.0011,   0.0221,        0,       0,       0,       0, 0, 0, 0, 0, 1, 1, 0, 1, 1, 0, 1, 0, 1, 0, 1
    79,     80, 1,    0.044,   0.0991,        0,       0,       0,       0, 0, 0, 0, 0, 1, 1, 0, 1, 1, 0, 1, 0, 1, 0, 1
...
0 / END OF BRANCH DATA, BEGIN TRANSFORMER DATA
     1,      3, 0, 1, 1, 1, 1, 0, 0, 2, '            ', 1, 1, 1, 0, 1, 0, 1, 0, 1, '            '
-0.009, -0.1718, 100
0.935, 0,     0,       0,       0,       0, 0, 0, 1.1, 0.9, 1.1, 0.9, 33, 0, 0, 0, 0
    1, 0
     1,      4, 0, 1, 1, 1, 1, 0, 0, 2, '            ', 1, 1, 1, 0, 1, 0, 1, 0, 1, '            '
-0.009, -0.1718, 100
0.935, 0,     0,       0,       0,       0, 0, 0, 1.1, 0.9, 1.1, 0.9, 33, 0, 0, 0, 0
    1, 0
     1,      5, 0, 1, 1, 1, 1, 0, 0, 2, '            ', 1, 1, 1, 0, 1, 0, 1, 0, 1, '            '
-0.0089, -0.1697, 100
0.935, 0,     0,       0,       0,       0, 0, 0, 1.1, 0.9, 1.1, 0.9, 33, 0, 0, 0, 0
    1, 0
     1,     33, 0, 1, 1, 1, 1, 0, 0, 2, '            ', 1, 1, 1, 0, 1, 0, 1, 0, 1, '            '
0.0001, 0.006, 100
0.935, 0,     0,     750,       0,       0, 0, 0, 1.1, 0.9, 1.1, 0.9, 33, 0, 0, 0, 0
    1, 0
     1,     93, 0, 1, 1, 1, 1, 0, 0, 2, '            ', 1, 1, 1, 0, 1, 0, 1, 0, 1, '            '
0.0002, 0.0138, 100
1.1036, 0,     0,       0,       0,       0, 0, 0, 1.1, 0.9, 1.1, 0.9, 33, 0, 0, 0, 0
    1, 0
     1,     93, 0, 2, 1, 1, 1, 0, 0, 2, '            ', 1, 1, 1, 0, 1, 0, 1, 0, 1, '            '
0.0002, 0.0138, 100
1.1036, 0,     0,       0,       0,       0, 0, 0, 1.1, 0.9, 1.1, 0.9, 33, 0, 0, 0, 0
    1, 0
     2,    113, 0, 1, 1, 1, 1, 0, 0, 2, '            ', 1, 1, 1, 0, 1, 0, 1, 0, 1, '            '
0, 0.0148, 100
1.1052, 0,     0,       0,       0,       0, 0, 0, 1.1, 0.9, 1.1, 0.9, 33, 0, 0, 0, 0
    1, 0
     2,    114, 0, 1, 1, 1, 1, 0, 0, 2, '            ', 1, 1, 1, 0, 1, 0, 1, 0, 1, '            '
0.00018, 0.0145, 100
1.1052, 0,     0,       0,       0,       0, 0, 0, 1.1, 0.9, 1.1, 0.9, 33, 0, 0, 0, 0
    1, 0
     3,     33, 0, 1, 1, 1, 1, 0, 0, 2, '            ', 1, 1, 1, 0, 1, 0, 1, 0, 1, '            '
0.0002, 0.0221, 100
    1, 0,     0,       0,       0,       0, 0, 0, 1.1, 0.9, 1.1, 0.9, 33, 0, 0, 0, 0
    1, 0
     4,     33, 0, 1, 1, 1, 1, 0, 0, 2, '            ', 1, 1, 1, 0, 1, 0, 1, 0, 1, '            '
0.0002, 0.0221, 100
    1, 0,     0,       0,       0,       0, 0, 0, 1.1, 0.9, 1.1, 0.9, 33, 0, 0, 0, 0
    1, 0
     5,     33, 0, 1, 1, 1, 1, 0, 0, 2, '            ', 1, 1, 1, 0, 1, 0, 1, 0, 1, '            '
0.0002, 0.0219, 100
    1, 0,     0,       0,       0,       0, 0, 0, 1.1, 0.9, 1.1, 0.9, 33, 0, 0, 0, 0
    1, 0
     7,      8, 0, 1, 1, 1, 1, 0, 0, 2, '            ', 1, 1, 1, 0, 1, 0, 1, 0, 1, '            '
-0.0112, -0.1516, 100
0.9716, 0,     0,       0,       0,       0, 0, 0, 1.1, 0.9, 1.1, 0.9, 33, 0, 0, 0, 0
    1, 0
     7,     66, 0, 1, 1, 1, 1, 0, 0, 2, '            ', 1, 1, 1, 0, 1, 0, 1, 0, 1, '            '
0.00015, 0.0097, 100
0.9716, 0,     0,     750,       0,       0, 0, 0, 1.1, 0.9, 1.1, 0.9, 33, 0, 0, 0, 0
    1, 0
     7,    104, 0, 1, 1, 1, 1, 0, 0, 2, '            ', 1, 1, 1, 0, 1, 0, 1, 0, 1, '            '
0.00036, 0.019, 100
1.1052, 0,     0,       0,       0,       0, 0, 0, 1.1, 0.9, 1.1, 0.9, 33, 0, 0, 0, 0
    1, 0
     7,    104, 0, 2, 1, 1, 1, 0, 0, 2, '            ', 1, 1, 1, 0, 1, 0, 1, 0, 1, '            '
0.00041, 0.0174, 100
1.1052, 0,     0,       0,       0,       0, 0, 0, 1.1, 0.9, 1.1, 0.9, 33, 0, 0, 0, 0
    1, 0
     9,     11, 0, 1, 1, 1, 1, 0, 0, 2, '            ', 1, 1, 1, 0, 1, 0, 1, 0, 1, '            '
-0.0217, -0.3062, 100
0.9166, 0,     0,       0,       0,       0, 0, 0, 1.1, 0.9, 1.1, 0.9, 33, 0, 0, 0, 0
    1, 0
     9,     69, 0, 1, 1, 1, 1, 0, 0, 2, '            ', 1, 1, 1, 0, 1, 0, 1, 0, 1, '            '
0.0004, 0.0188, 100
0.9166, 0,     0,     750,       0,       0, 0, 0, 1.1, 0.9, 1.1, 0.9, 33, 0, 0, 0, 0
    1, 0
    10,     32, 0, 1, 1, 1, 1, 0, 0, 2, '            ', 1, 1, 1, 0, 1, 0, 1, 0, 1, '            '
-0.027, -0.3041, 100
0.9166, 0,     0,       0,       0,       0, 0, 0, 1.1, 0.9, 1.1, 0.9, 33, 0, 0, 0, 0
    1, 0
    10,     69, 0, 1, 1, 1, 1, 0, 0, 2, '            ', 1, 1, 1, 0, 1, 0, 1, 0, 1, '            '
0.0004, 0.0187, 100
0.9166, 0,     0,     750,       0,       0, 0, 0, 1.1, 0.9, 1.1, 0.9, 33, 0, 0, 0, 0
    1, 0
    12,     13, 0, 1, 1, 1, 1, 0, 0, 2, '            ', 1, 1, 1, 0, 1, 0, 1, 0, 1, '            '
-0.0223, -0.3099, 100
0.9166, 0,     0,       0,       0,       0, 0, 0, 1.1, 0.9, 1.1, 0.9, 33, 0, 0, 0, 0
    1, 0
    12,     13, 0, 2, 1, 1, 1, 0, 0, 2, '            ', 1, 1, 1, 0, 1, 0, 1, 0, 1, '            '
-0.0237, -0.316, 100
0.9166, 0,     0,       0,       0,       0, 0, 0, 1.1, 0.9, 1.1, 0.9, 33, 0, 0, 0, 0
    1, 0
    12,     13, 0, 3, 1, 1, 1, 0, 0, 2, '            ', 1, 1, 1, 0, 1, 0, 1, 0, 1, '            '
-0.0237, -0.316, 100
0.9166, 0,     0,       0,       0,       0, 0, 0, 1.1, 0.9, 1.1, 0.9, 33, 0, 0, 0, 0
    1, 0
    12,     72, 0, 1, 1, 1, 1, 0, 0, 2, '            ', 1, 1, 1, 0, 1, 0, 1, 0, 1, '            '
0.0003, 0.0189, 100
0.9166, 0,     0,     750,       0,       0, 0, 0, 1.1, 0.9, 1.1, 0.9, 33, 0, 0, 0, 0
    1, 0
    12,     72, 0, 2, 1, 1, 1, 0, 0, 2, '            ', 1, 1, 1, 0, 1, 0, 1, 0, 1, '            '
0.0003, 0.019, 100
0.9166, 0,     0,     750,       0,       0, 0, 0, 1.1, 0.9, 1.1, 0.9, 33, 0, 0, 0, 0
    1, 0
    12,     72, 0, 3, 1, 1, 1, 0, 0, 2, '            ', 1, 1, 1, 0, 1, 0, 1, 0, 1, '            '
0.0003, 0.019, 100
0.9166, 0,     0,       0,       0,       0, 0, 0, 1.1, 0.9, 1.1, 0.9, 33, 0, 0, 0, 0
    1, 0
    14,     15, 0, 1, 1, 1, 1, 0, 0, 2, '            ', 1, 1, 1, 0, 1, 0, 1, 0, 1, '            '
-0.0415, -0.3996, 100
0.9164, 0,     0,       0,       0,       0, 0, 0, 1.1, 0.9, 1.1, 0.9, 33, 0, 0, 0, 0
    1, 0
    14,     16, 0, 1, 1, 1, 1, 0, 0, 2, '            ', 1, 1, 1, 0, 1, 0, 1, 0, 1, '            '
-0.01, -0.1669, 100
0.9164, 0,     0,       0,       0,       0, 0, 0, 1.1, 0.9, 1.1, 0.9, 33, 0, 0, 0, 0
    1, 0
    14,     58, 0, 1, 1, 1, 1, 0, 0, 2, '            ', 1, 1, 1, 0, 1, 0, 1, 0, 1, '            '
0.0002, 0.0097, 100
0.9164, 0,     0,     750,       0,       0, 0, 0, 1.1, 0.9, 1.1, 0.9, 33, 0, 0, 0, 0
    1, 0
    17,     18, 0, 1, 1, 1, 1, 0, 0, 2, '            ', 1, 1, 1, 0, 1, 0, 1, 0, 1, '            '
-0.3181, -1.315, 100
0.8708, 0,     0,       0,       0,       0, 0, 0, 1.1, 0.9, 1.1, 0.9, 33, 0, 0, 0, 0
...